/*--------------------------------*- C++ -*----------------------------------*\
  =========                 |
  \\      /  F ield         | OpenFOAM: The Open Source CFD Toolbox
   \\    /   O peration     | Website:  https://openfoam.org
    \\  /    A nd           | Version:  8
     \\/     M anipulation  |
\*---------------------------------------------------------------------------*/
FoamFile
{
    version     2.1;
    format      binary;
    class       dictionary;
    location    "constant";
    object      chemistryProperties;
}
// * * * * * * * * * * * * * * * * * * * * * * * * * * * * * * * * * * * * * //

chemistry         off;

chemistryType
{
    solver            ode;
}

solidChemistryType
{
    solver              solidOde;
    method              ODESolidHeterogeneousChemistryModel;
    solidThermoType     const<constRad<constThermo<constRho>>>;
}

chemistrySolver     ode;

solidChemistrySolver	solidOde;

initialChemicalTimeStep 1e-7;

turbulentReaction   off;
solidReactionEnergyFromEnthalpy false;
stoichiometricReactions false;
showRelativeReactionRates false;

solidChemistryTimeStepControl true;

odeCoeffs
{
    solver          seulex;
}

solidOdeCoeffs
{
    solver      seulex;
}

species 	//gasous products of reactions
(
    O2 N2
);

solidReactions
(
);

// ************************************************************************* //


