/*--------------------------------*- C++ -*----------------------------------*\
  =========                 |
  \\      /  F ield         | OpenFOAM: The Open Source CFD Toolbox
   \\    /   O peration     | Website:  https://openfoam.org
    \\  /    A nd           | Version:  8
     \\/     M anipulation  |
\*---------------------------------------------------------------------------*/
FoamFile
{
    version     2.0;
    format      binary;
    class       polyBoundaryMesh;
    location    "constant/polyMesh";
    object      boundary;
}
// * * * * * * * * * * * * * * * * * * * * * * * * * * * * * * * * * * * * * //

5
(
    top
    {
        type            wall;
        inGroups        List<word> 1(wall);
        nFaces          100;
        startFace       79500;
    }
    bottom
    {
        type            wall;
        inGroups        List<word> 1(wall);
        nFaces          100;
        startFace       79600;
    }
    inlet
    {
        type            patch;
        nFaces          400;
        startFace       79700;
    }
    outlet
    {
        type            patch;
        nFaces          400;
        startFace       80100;
    }
    frontAndBack
    {
        type            empty;
        inGroups        List<word> 1(empty);
        nFaces          80000;
        startFace       80500;
    }
)

// ************************************************************************* //
