/*--------------------------------*- C++ -*----------------------------------*\
  =========                 |
  \\      /  F ield         | OpenFOAM: The Open Source CFD Toolbox
   \\    /   O peration     | Website:  https://openfoam.org
    \\  /    A nd           | Version:  8
     \\/     M anipulation  |
\*---------------------------------------------------------------------------*/
FoamFile
{
    version     2.0;
    format      ascii;
    class       dictionary;
    location    "system";
    object      fvSchemes;
}
// * * * * * * * * * * * * * * * * * * * * * * * * * * * * * * * * * * * * * //

ddtSchemes
{
    default         CrankNicolson 0.3;
}

gradSchemes
{
    default         Gauss linear; 
}

divSchemes
{
    default         none;

    div(phi,U)      Gauss linearUpwindV default;
    div(phi,Yi)     Gauss upwind;
    div(phi,h)      Gauss upwind;
    div(phi,K)      Gauss upwind;
    div(((rho*nuEff)*dev2(T(grad(U))))) Gauss linear;
}

laplacianSchemes
{
    default         Gauss linear limited 1;
}

interpolationSchemes
{
    default         linear;
}

snGradSchemes
{
    default         limited 1;
}

// ************************************************************************* //
