/*--------------------------------*- C++ -*----------------------------------*\
| =========                 |                                                 |
| \\      /  F ield         | foam-extend: Open Source CFD                    |
|  \\    /   O peration     | Version:     3.1                                |
|   \\  /    A nd           | Web:         http://www.extend-project.de       |
|    \\/     M anipulation  |                                                 |
\*---------------------------------------------------------------------------*/
FoamFile
{
    version     2.0;
    format      ascii;
    class       volTensorField;
    location    "0";
    object      alphaSgs;
}
// * * * * * * * * * * * * * * * * * * * * * * * * * * * * * * * * * * * * * //

dimensions      [0 0 0 0 0 0 0];

internalField   uniform (1 0 0 0 1 0 0 0 1);

boundaryField
{
    outlet
    {
        type            zeroGradient;
    }
    sides
    {
        type            zeroGradient;
    }
    base
    {
        type            zeroGradient;
    }
    inlet
    {
        type            zeroGradient;
    }
    frontBack
    {
        type            empty;
    }
}

// ************************************************************************* //
