/*--------------------------------*- C++ -*----------------------------------*\
  =========                 |
  \\      /  F ield         | OpenFOAM: The Open Source CFD Toolbox
   \\    /   O peration     | Website:  https://openfoam.org
    \\  /    A nd           | Version:  8
     \\/     M anipulation  |
\*---------------------------------------------------------------------------*/
FoamFile
{
    version     2.0;
    format      ascii;
    class       polyBoundaryMesh;
    location    "constant/polyMesh";
    object      boundary;
}
// * * * * * * * * * * * * * * * * * * * * * * * * * * * * * * * * * * * * * //

3
(
    wall
    {
        type            wall;
        inGroups        List<word> 1(wall);
        nFaces          1280;
        startFace       55180;
    }
    inlet
    {
        type            patch;
        nFaces          160;
        startFace       56460;
    }
    outlet
    {
        type            patch;
        nFaces          160;
        startFace       56620;
    }
)

// ************************************************************************* //
