/*--------------------------------*- C++ -*----------------------------------*\
  =========                 |
  \\      /  F ield         | OpenFOAM: The Open Source CFD Toolbox
   \\    /   O peration     | Website:  https://openfoam.org
    \\  /    A nd           | Version:  8
     \\/     M anipulation  |
\*---------------------------------------------------------------------------*/
FoamFile
{
    version     2.0;
    format      ascii;
    class       dictionary;
    object      topoSetDict;
}

// * * * * * * * * * * * * * * * * * * * * * * * * * * * * * * * * * * * * * //

actions
(
    {
        name    porosity;
        type    cellSet;
        action  new;
        source  boxToCell;
        sourceInfo
        {
            box (0.049 -0.03 -0.03) (0.069 0.03 0.03);
        }
    }
    {
        name    porosity;
        type    cellZoneSet;
        action  new;
        source  setToCellZone;
        sourceInfo
        {
            set porosity;
        }
    }
);

// ************************************************************************* //
