/*--------------------------------*- C++ -*----------------------------------*\
  =========                 |
  \\      /  F ield         | OpenFOAM: The Open Source CFD Toolbox
   \\    /   O peration     | Website:  https://openfoam.org
    \\  /    A nd           | Version:  8
     \\/     M anipulation  |
\*---------------------------------------------------------------------------*/
FoamFile
{
    version     2.1;
    format      binary;
    class       dictionary;
    location    "constant";
    object      pyrolysisProperties;
}
// * * * * * * * * * * * * * * * * * * * * * * * * * * * * * * * * * * * * * //

active          true;

heterogeneousPyrolysisModel  volPyrolysis;

pyrolysisCoeffs
{
    subintegrateHeatTransfer false;
}

infoOutput      true;

// ************************************************************************* //
